/*--------------------------------*- C++ -*----------------------------------*\
| =========                 |                                                 |
| \\      /  F ield         | OpenFOAM: The Open Source CFD Toolbox           |
|  \\    /   O peration     | Version:  3.0.0                                 |
|   \\  /    A nd           | Web:      www.OpenFOAM.org                      |
|    \\/     M anipulation  |                                                 |
\*---------------------------------------------------------------------------*/
FoamFile
{
    version     2.0;
    format      binary;
    class       volScalarField;
    location    "0";
    object      p;
}
// * * * * * * * * * * * * * * * * * * * * * * * * * * * * * * * * * * * * * //

dimensions      [0 2 -2 0 0 0 0];

internalField   uniform 0;

boundaryField
{
    front_and_back
    {
        type            empty;
    }
    inlet
    {
        type            zeroGradient;
    }
    tunnel
    {
        type            slip;
    }
    outlet
    {
        type            fixedValue;
        value           uniform 0;
    }
    body
    {
        type            zeroGradient;
    }
    baffle
    {
        type            fixedJump;
        patchType       cyclic;
        jump            uniform -800;
        value           uniform 0;
    }
    baffleother
    {
        type            fixedJump;
        patchType       cyclic;
        value           uniform 0;
    }
}


// ************************************************************************* //
