/*--------------------------------*- C++ -*----------------------------------*\
| =========                 |                                                 |
| \\      /  F ield         | OpenFOAM: The Open Source CFD Toolbox           |
|  \\    /   O peration     | Version:  2.3.1                                 |
|   \\  /    A nd           | Web:      www.OpenFOAM.org                      |
|    \\/     M anipulation  |                                                 |
\*---------------------------------------------------------------------------*/
FoamFile
{
    version     2.0;
    format      ascii;
    class       dictionary;
    location    "constant";
    object      mechanicalProperties;
}
// * * * * * * * * * * * * * * * * * * * * * * * * * * * * * * * * * * * * * //

// These properties are approximate for Aluminum 6061.

rho
{//Density, kg/m^3
    type        uniform;
    value       2700;
}

nu
{//Poisson's ratio
    type        uniform;
    value       0.33;
}

E
{//Young's modulus, Pa
    type        uniform;
    value       68.9e9;
}

planeStress     yes;

// ************************************************************************* //
